=
     RDKit          3D

 12 12  0  0  0  0  0  0  0  0999 V2000
   25.9410    4.6750    2.5640 C   0  0  2  0  0  0  0  0  0  0  0  0
   26.2380    5.2690    1.1810 C   0  0  0  0  0  0  0  0  0  0  0  0
   26.4330    4.2070    0.0940 C   0  0  0  0  0  0  0  0  0  0  0  0
   25.5870    2.9440    0.2830 C   0  0  1  0  0  0  0  0  0  0  0  0
   24.3490    3.2020    1.1430 C   0  0  1  0  0  0  0  0  0  0  0  0
   24.7260    3.7060    2.5350 C   0  0  0  0  0  0  0  0  0  0  0  0
   23.5270    4.1940    0.5200 O   0  0  0  0  0  0  0  0  0  0  0  0
   25.1780    2.4910   -1.0070 O   0  0  0  0  0  0  0  0  0  0  0  0
   25.7260    5.7610    3.6480 C   0  0  1  0  0  0  0  0  0  0  0  0
   24.4140    5.5790    4.2220 O   0  0  0  0  0  0  0  0  0  0  0  0
   26.6900    5.7070    4.8470 C   0  0  0  0  0  0  0  0  0  0  0  0
   25.9360    6.1200    6.0640 N   0  0  0  0  0  0  0  0  0  0  0  0
  1  2  1  6
  3  2  1  0
  4  3  1  0
  5  4  1  0
  6  5  1  0
  6  1  1  0
  5  7  1  6
  4  8  1  6
  9  1  1  0
  9 10  1  1
 11  9  1  0
 12 11  1  0
M  CHG  1  12   1
M  END
