=
     RDKit          3D

 19 20  0  0  0  0  0  0  0  0999 V2000
   27.2140    5.2320    0.3890 C   0  0  0  0  0  0  0  0  0  0  0  0
   26.4930    4.5130    1.3910 O   0  0  0  0  0  0  0  0  0  0  0  0
   26.4180    5.0610    2.6510 C   0  0  0  0  0  0  0  0  0  0  0  0
   27.4860    5.6970    3.2910 C   0  0  0  0  0  0  0  0  0  0  0  0
   27.3020    6.2910    4.5380 C   0  0  0  0  0  0  0  0  0  0  0  0
   26.0540    6.2550    5.1550 C   0  0  0  0  0  0  0  0  0  0  0  0
   24.9720    5.6080    4.5440 C   0  0  0  0  0  0  0  0  0  0  0  0
   25.1470    4.9870    3.2830 C   0  0  0  0  0  0  0  0  0  0  0  0
   24.0380    4.3110    2.7230 C   0  0  0  0  0  0  0  0  0  0  0  0
   22.8000    4.2750    3.3680 C   0  0  0  0  0  0  0  0  0  0  0  0
   22.6410    4.9090    4.5930 C   0  0  0  0  0  0  0  0  0  0  0  0
   23.7210    5.5680    5.1790 C   0  0  0  0  0  0  0  0  0  0  0  0
   26.5020    5.0080   -0.9530 C   0  0  2  0  0  0  0  0  0  0  0  0
   26.2910    3.6160   -1.1700 O   0  0  0  0  0  0  0  0  0  0  0  0
   27.3310    5.5580   -2.1360 C   0  0  0  0  0  0  0  0  0  0  0  0
   27.7010    4.4840   -3.1170 N   0  0  0  0  0  0  0  0  0  0  0  0
   29.1200    4.4980   -3.6070 C   0  0  0  0  0  0  0  0  0  0  0  0
   30.0630    4.1380   -2.4660 C   0  0  0  0  0  0  0  0  0  0  0  0
   29.2280    3.4960   -4.7510 C   0  0  0  0  0  0  0  0  0  0  0  0
  2  1  1  0
  3  2  1  0
  4  3  2  0
  5  4  1  0
  6  5  2  0
  7  6  1  0
  8  3  1  0
  8  7  2  0
  9  8  1  0
 10  9  2  0
 11 10  1  0
 12 11  2  0
 12  7  1  0
 13  1  1  0
 13 14  1  6
 15 13  1  0
 16 15  1  0
 17 16  1  0
 18 17  1  0
 19 17  1  0
M  CHG  1  16   1
M  END
