=
     RDKit          3D

 30 32  0  0  0  0  0  0  0  0999 V2000
   31.0030    4.5460   -4.0860 C   0  0  1  0  0  0  0  0  0  0  0  0
   30.1800    5.7760   -3.6770 C   0  0  0  0  0  0  0  0  0  0  0  0
   28.7720    5.3990   -3.2010 C   0  0  2  0  0  0  0  0  0  0  0  0
   28.7820    4.9610   -1.7340 C   0  0  0  0  0  0  0  0  0  0  0  0
   28.1450    4.3190   -4.0470 C   0  0  0  0  0  0  0  0  0  0  0  0
   28.8160    3.5840   -4.9500 C   0  0  0  0  0  0  0  0  0  0  0  0
   30.2900    3.7950   -5.2420 C   0  0  2  0  0  0  0  0  0  0  0  0
   31.0890    2.5120   -5.6610 C   0  0  1  0  0  0  0  0  0  0  0  0
   30.2420    1.2190   -5.8040 C   0  0  2  0  0  0  0  0  0  0  0  0
   28.7970    1.4730   -6.1340 C   0  0  0  0  0  0  0  0  0  0  0  0
   28.1410    2.5600   -5.7120 C   0  0  0  0  0  0  0  0  0  0  0  0
   30.3150    0.3760   -4.5220 C   0  0  0  0  0  0  0  0  0  0  0  0
   32.2920    4.9830   -4.5680 O   0  0  0  0  0  0  0  0  0  0  0  0
   33.2710    5.1590   -3.6400 C   0  0  0  0  0  0  0  0  0  0  0  0
   33.1640    5.8720   -2.6500 O   0  0  0  0  0  0  0  0  0  0  0  0
   34.5000    4.3010   -3.9650 C   0  0  0  0  0  0  0  0  0  0  0  0
   34.1840    2.8640   -3.5140 C   0  0  0  0  0  0  0  0  0  0  0  0
   35.7030    4.8160   -3.1580 C   0  0  0  0  0  0  0  0  0  0  0  0
   35.5970    3.0740   -5.9690 C   0  0  0  0  0  0  0  0  0  0  0  0
   34.8250    4.2950   -5.4810 C   0  0  0  0  0  0  0  0  0  0  0  0
   31.9310    2.7760   -6.9430 C   0  0  0  0  0  0  0  0  0  0  0  0
   31.9180    1.6540   -7.9950 C   0  0  0  0  0  0  0  0  0  0  0  0
   32.9670    1.8410   -9.1040 C   0  0  2  0  0  0  0  0  0  0  0  0
   34.0090    0.7360   -9.1320 C   0  0  0  0  0  0  0  0  0  0  0  0
   35.0420    1.0940  -10.1820 C   0  0  1  0  0  0  0  0  0  0  0  0
   35.7160    2.3920   -9.7980 C   0  0  0  0  0  0  0  0  0  0  0  0
   34.7530    3.4960   -9.4680 C   0  0  0  0  0  0  0  0  0  0  0  0
   35.0780    4.6760   -9.5630 O   0  0  0  0  0  0  0  0  0  0  0  0
   33.5500    3.1530   -8.9560 O   0  0  0  0  0  0  0  0  0  0  0  0
   36.0250    0.0650  -10.2500 O   0  0  0  0  0  0  0  0  0  0  0  0
  2  1  1  0
  3  2  1  0
  3  4  1  1
  5  3  1  0
  6  5  2  0
  7  6  1  1
  7  1  1  0
  8  7  1  0
  9  8  1  0
 10  9  1  0
 11 10  2  0
 11  6  1  0
  9 12  1  1
  1 13  1  6
 14 13  1  0
 15 14  2  0
 16 14  1  0
 17 16  1  0
 18 16  1  0
 20 19  1  0
 20 16  1  0
  8 21  1  6
 22 21  1  0
 23 22  1  1
 24 23  1  0
 25 24  1  0
 26 25  1  0
 27 26  1  0
 28 27  2  0
 29 27  1  0
 29 23  1  0
 25 30  1  1
M  END
